** written by FreeCAD inp file writer for CalculiX,Abaqus meshes
** highest dimension mesh elements only.

** Nodes
*Node, NSET=Nall
1, 0, 0, 0
2, 0, -20, 4.440892098501e-15
3, 0, 8.244245286448e-15, 37.12878
4, 0, -20, 37.12878
5, 16, 8.244245286448e-15, 37.12878
6, 16, -20, 37.12878
7, 16, 3.803353187948e-15, 17.12878
8, 16, -20, 17.12878
9, 66, 3.803353187948e-15, 17.12878
10, 66, -20, 17.12878
11, 66, 1.582907138697e-15, 7.12878
12, 66, -20, 7.12878
13, 0, -6.666666666667, 1.480297366167e-15
14, 0, -13.33333333333, 2.960594732334e-15
15, 0, -6.666666666667, 37.12878
16, 0, -13.33333333333, 37.12878
17, 0, 1.64884905729e-15, 7.425756
18, 0, 3.297698114579e-15, 14.851512
19, 0, 4.946547171869e-15, 22.277268
20, 0, 6.595396229159e-15, 29.703024
** ... 175 like lines cut


** Volume elements
*Element, TYPE=C3D4, ELSET=Evolumes
449, 128, 108, 107, 195
450, 107, 131, 128, 195
451, 108, 128, 132, 195
452, 132, 128, 131, 195
453, 150, 163, 91, 168
454, 108, 107, 105, 128
455, 190, 160, 162, 191
456, 130, 105, 114, 128
457, 133, 105, 128, 115
458, 84, 148, 135, 189
459, 167, 153, 110, 192
460, 106, 141, 118, 104
461, 147, 120, 113, 104
462, 130, 109, 106, 105
463, 190, 81, 160, 191
464, 130, 106, 114, 105
465, 126, 119, 109, 142
466, 133, 109, 105, 115
467, 105, 130, 109, 133
468, 111, 173, 192, 195
** ... 482 like lines cut

** Define element set Eall
*ELSET, ELSET=Eall
Evolumes



***********************************************************
** Element sets for materials and FEM element type (solid, shell, beam, fluid)
*ELSET,ELSET=MaterialSolidSolid
Evolumes

***********************************************************
** constraints temperature node sets
** ConstraintTemperature
*NSET,NSET=ConstraintTemperature
9,
10,
11,
12,
37,
38,
51,
52,
53,
54,
122,
123,
124,

** Physical constants for SI(mm) unit system with Kelvins
*PHYSICAL CONSTANTS, ABSOLUTE ZERO=0, STEFAN BOLTZMANN=5.670374419e-11

***********************************************************
** Materials
** see information about units at file end
** FreeCAD material name: AlMgSi1F31
** MaterialSolid
*MATERIAL, NAME=MaterialSolid
*ELASTIC
70000,0.3
*DENSITY
2.7E-09
*CONDUCTIVITY
160
*EXPANSION
2.3E-05
*SPECIFIC HEAT
896000000

***********************************************************
** Initial temperature constraint
*INITIAL CONDITIONS,TYPE=TEMPERATURE
** ConstraintInitialTemperature
Nall,300.0

***********************************************************
** Sections
*SOLID SECTION, ELSET=MaterialSolidSolid, MATERIAL=MaterialSolid

***********************************************************
** At least one step is needed to run an CalculiX analysis of FreeCAD
*STEP, INC=2000
*COUPLED TEMPERATURE-DISPLACEMENT
0.01,360.0,1e-05,30.0

***********************************************************
** Fixed temperature constraint applied
** ConstraintTemperature
*CFLUX
ConstraintTemperature,11,769.2307692307693


***********************************************************
** constraints heatflux element face heatflux
** ConstraintHeatflux
*FILM
** Heat flux on face Pad:Face8
529,F1,300,0.005
542,F1,300,0.005
595,F1,300,0.005
607,F1,300,0.005
614,F1,300,0.005
625,F2,300,0.005
637,F3,300,0.005
652,F3,300,0.005
656,F1,300,0.005
657,F1,300,0.005
668,F1,300,0.005
675,F1,300,0.005
680,F2,300,0.005
682,F4,300,0.005
694,F1,300,0.005
698,F1,300,0.005
701,F2,300,0.005
711,F1,300,0.005
713,F4,300,0.005
729,F2,300,0.005
** ... 47 like lines cut
** Heat flux on face Pad:Face4
454,F1,300,0.005
460,F4,300,0.005
461,F3,300,0.005
462,F3,300,0.005
464,F3,300,0.005
466,F3,300,0.005
474,F4,300,0.005
495,F2,300,0.005
498,F2,300,0.005
499,F4,300,0.005
519,F1,300,0.005
523,F4,300,0.005
543,F2,300,0.005
565,F1,300,0.005
618,F1,300,0.005
619,F1,300,0.005
658,F3,300,0.005
673,F1,300,0.005
678,F1,300,0.005
684,F1,300,0.005
** ... 36 like lines cut
** Heat flux on face Pad:Face3
567,F1,300,0.005
594,F1,300,0.005
635,F1,300,0.005
653,F1,300,0.005
662,F1,300,0.005
686,F1,300,0.005
709,F1,300,0.005
710,F4,300,0.005
714,F1,300,0.005
716,F1,300,0.005
730,F1,300,0.005
741,F1,300,0.005
742,F1,300,0.005
779,F4,300,0.005
787,F2,300,0.005
808,F4,300,0.005
809,F4,300,0.005
812,F2,300,0.005
828,F2,300,0.005
830,F1,300,0.005
** ... 8 like lines cut
** Heat flux on face Pad:Face2
564,F1,300,0.005
592,F1,300,0.005
638,F1,300,0.005
715,F1,300,0.005
719,F2,300,0.005
723,F1,300,0.005
724,F1,300,0.005
725,F1,300,0.005
756,F1,300,0.005
763,F1,300,0.005
774,F2,300,0.005
775,F3,300,0.005
789,F2,300,0.005
797,F1,300,0.005
817,F2,300,0.005
834,F3,300,0.005
842,F3,300,0.005
856,F1,300,0.005
858,F2,300,0.005
859,F4,300,0.005
** ... 8 like lines cut
** Heat flux on face Pad:Face7
453,F2,300,0.005
479,F1,300,0.005
493,F1,300,0.005
509,F1,300,0.005
527,F1,300,0.005
539,F1,300,0.005
541,F1,300,0.005
584,F1,300,0.005
605,F1,300,0.005
613,F1,300,0.005
621,F4,300,0.005
632,F2,300,0.005
674,F1,300,0.005
683,F1,300,0.005
688,F4,300,0.005
697,F1,300,0.005
700,F1,300,0.005
712,F3,300,0.005
717,F3,300,0.005
733,F4,300,0.005
** ... 47 like lines cut
** Heat flux on face Pad:Face6
452,F1,300,0.005
475,F3,300,0.005
494,F3,300,0.005
504,F3,300,0.005
511,F2,300,0.005
532,F4,300,0.005
537,F1,300,0.005
550,F1,300,0.005
561,F1,300,0.005
581,F1,300,0.005
588,F1,300,0.005
590,F1,300,0.005
593,F1,300,0.005
611,F1,300,0.005
612,F1,300,0.005
620,F1,300,0.005
639,F3,300,0.005
646,F1,300,0.005
647,F1,300,0.005
654,F1,300,0.005
** ... 50 like lines cut
** Heat flux on face Pad:Face1
570,F1,300,0.005
583,F1,300,0.005
591,F1,300,0.005
597,F1,300,0.005
629,F1,300,0.005
636,F1,300,0.005
649,F1,300,0.005
650,F1,300,0.005
659,F1,300,0.005
676,F4,300,0.005
685,F1,300,0.005
691,F1,300,0.005
693,F1,300,0.005
703,F1,300,0.005
718,F1,300,0.005
726,F1,300,0.005
743,F2,300,0.005
745,F2,300,0.005
769,F1,300,0.005
802,F4,300,0.005
** ... 22 like lines cut

***********************************************************
** Outputs --> frd file
*NODE FILE
U, NT
*EL FILE
S, E, HFL
*OUTPUT, FREQUENCY=1
***********************************************************
*END STEP

***********************************************************
** CalculiX Input file
**   written by    --> FreeCAD 1.0.0
**   written on    --> Fri Feb  7 13:31:13 2025
**   file name     --> example.FCStd
**   analysis name --> Analysis
**
**
***********************************************************
**  About units:
**  See ccx manual, ccx does not know about any unit.
**  Golden rule: The user must make sure that the numbers they provide have consistent units.
**  The user is the FreeCAD calculix writer module ;-)
**
**  The unit system which is used at Guido Dhondt's company: mm, N, s, K
**  Since Length and Mass are connected by Force, if Length is mm the Mass is in t to get N
**  The following units are used to write to inp file:
**
**  Length: mm (this includes the mesh geometry)
**  Mass: t
**  TimeSpan: s
**  Temperature: K
**
**  This leads to:
**  Force: N
**  Pressure: N/mm^2 == MPa (Young's Modulus has unit Pressure)
**  Density: t/mm^3
**  Gravity: mm/s^2
**  Thermal conductivity: t*mm/K/s^3 == as W/m/K == kW/mm/K
**  Specific Heat: mm^2/s^2/K = J/kg/K == kJ/t/K
**
